%Nproc=8
%mem=2000MB
%chk=PD1_PD2_v5_PD1.chk
#P wb97xD CC-PVTZ pop=full nosymm
#P Iop(3/8=1)
#P Iop(5/33=3) Iop(3/33=1) guess=read

comment

0 1
Mg       -19.93500      -45.02200       46.34900
C        -23.35700      -44.69400       45.57600
C        -19.58200      -46.59400       43.21200
C        -16.51500      -44.33800       46.36400
C        -20.40900      -42.82100       49.16100
N        -21.22600      -45.55400       44.66900
C        -22.54300      -45.36600       44.60400
C        -23.16100      -45.88200       43.32000
C        -22.04000      -46.79500       42.81900
C        -20.85700      -46.27800       43.60700
C        -22.18500      -48.24400       43.29900
C        -23.41100      -44.63800       42.42700
C        -23.99000      -44.96500       41.04400
C        -25.46200      -45.19500       41.31100
O        -26.02800      -44.81900       42.32800
O        -26.19700      -45.79300       40.31000
N        -18.35800      -45.41700       45.00100
C        -18.34500      -46.10600       43.86200
C        -17.03000      -46.32600       43.26900
C        -16.14900      -45.66400       44.20300
C        -17.05900      -45.09500       45.19900
C        -16.74700      -47.12300       42.00800
C        -14.68500      -45.46400       44.21700
C        -13.98100      -45.85300       43.17200
N        -18.72000      -43.78100       47.50100
C        -17.35800      -43.70500       47.41500
C        -16.74900      -42.91800       48.47300
C        -17.87100      -42.47300       49.29700
C        -19.04900      -43.06500       48.61600
C        -15.23000      -42.68700       48.65000
C        -17.77100      -41.60000       50.55200
C        -17.21800      -40.21900       50.15200
N        -21.36700      -43.96500       47.20900
C        -21.51600      -43.25500       48.33500
C        -22.88000      -42.79900       48.62300
C        -23.61200      -43.40200       47.51300
C        -22.67400      -44.05800       46.69800
C        -23.25500      -42.02700       49.83900
C        -24.94800      -43.51300       46.92300
O        -25.99800      -42.99600       47.43000
C        -24.80100      -44.28600       45.65700
C        -25.66800      -45.49100       45.68600
O        -25.37800      -46.60800       46.14300
O        -27.04800      -45.20000       45.43700
C        -27.94700      -46.33800       45.50500
C        -27.61900      -45.87500       40.40000
H        -19.42500      -47.24600       42.36600
H        -15.44800      -44.22300       46.48300
H        -20.52800      -42.34400       50.12300
H        -24.08100      -46.43600       43.50800
H        -21.89000      -46.72300       41.74200
H        -21.36000      -48.84000       42.91000
H        -22.16900      -48.27000       44.38900
H        -23.12900      -48.65300       42.94000
H        -22.47900      -44.08600       42.30700
H        -24.07900      -43.95000       42.94500
H        -23.54200      -45.88800       40.67500
H        -23.87300      -44.10000       40.39100
H        -15.67600      -47.11600       41.80600
H        -17.08400      -48.15100       42.14400
H        -17.27700      -46.67500       41.16800
H        -14.21100      -45.00700       45.07300
H        -12.91000      -45.71600       43.16100
H        -14.47600      -46.30800       42.32700
H        -15.05700      -42.06000       49.52400
H        -14.73000      -43.64600       48.78600
H        -14.83100      -42.19300       47.76400
H        -17.09500      -42.06900       51.26700
H        -18.76100      -41.48100       50.99100
H        -17.14200      -39.58700       51.03700
H        -16.23100      -40.33800       49.70500
H        -17.88900      -39.75300       49.43100
H        -24.32300      -41.81000       49.81700
H        -23.02100      -42.61300       50.72800
H        -22.69600      -41.09200       49.86300
H        -25.06100      -43.65900       44.80400
H        -28.96600      -46.00900       45.30100
H        -27.65100      -47.08100       44.76400
H        -27.90000      -46.78000       46.50000
H        -28.01100      -46.37900       39.51700
H        -27.89500      -46.43800       41.29200
H        -28.03800      -44.87100       40.46000



